[?1049h[22;0;0t[1;44r(B[m[4l[?7h[39;49m[?1h=[?1h=[?1h=[?25l[39;49m(B[m[H[2J[42;36H(B[0;7m[ Reading File ](B[m[42;35H(B[0;7m[ Read 54 lines ](B[m[H(B[0;7m  GNU nano 2.9.8             ../case65/ww3_prnc_ic1_case65.inp                        [1;85H(B[m[43d(B[0;7m^G(B[m Get Help   (B[0;7m^O(B[m Write Out  (B[0;7m^W(B[m Where Is   (B[0;7m^K(B[m Cut Text   (B[0;7m^J(B[m Justify    (B[0;7m^C(B[m Cur Pos[44d(B[0;7m^X(B[m Exit[15G(B[0;7m^R(B[m Read File  (B[0;7m^\(B[m Replace    (B[0;7m^U(B[m Uncut Text (B[0;7m^T(B[m To Spell   (B[0;7m^_(B[m Go To Line[42d[3d[39;49m(B[m$ -------------------------------------------------------------------- $[4d$ WAVEWATCH III Field preprocessor input file[4;72H$[5d$ -------------------------------------------------------------------- $[6d$ Mayor types of field and time flag[7d$   Field types  :  IC1   Ice thickness.[8d$[8;21HIC5   Ice floe mean diameter.[9d$[9;21HICE   Ice concentrations.[10d$[10;21HLEV   Water levels.[11d$[11;21HWND   Winds.[12d$[12;21HWNS   Winds (including air-sea temp. dif.)[13d$[13;21HCUR   Currents.[14d$[14;21HDAT   Data for assimilation.[15d$[16d$   Format types :  AI    Transfer field 'as is'. (ITYPE 1)[17d$[17;21HLL    Field defined on regular longitude-latitude[18d$[18;27Hor Cartesian grid. (ITYPE 2)[19d$   Format types :  AT    Transfer field 'as is', performs tidal[20d$[20;27Hanalysis on the time series (ITYPE 6)[21d$[22d$[22;10H- Format type not used for field type 'DAT'.[23d$[24d$   Time flag    : If true, time is included in file.[25d$   Header flag  : If true, header is added to file.[26d$[26;20H(necessary for reading, FALSE is used only for[27d$[27;21Hincremental generation of a data file.)[28d$[29d'IC1' 'LL' T T[30d$[31d$ Name of dimensions ------------------------------------------------- $[32d$[33dni nj time[34d$[35d$ Variables to use --------------------------------------------------- $[36d$[37dhi[38d$[39d$[40d$ Additional time input ---------------------------------------------- $[41d$ If time flag is .FALSE., give time of field in yyyymmdd hhmmss format.[3d[?12l[?25h[?25l[42;29H(B[0;7m[ Suspension is not enabled ](B[m[3d[?12l[?25h[44;1H[?1049l[23;0;0t[?1l>