$ WAVEWATCH III Initial conditions input file
$ -------------------------------------------
 5
$
