$ WAVEWATCH III shell input file
$ ------------------------------
   T F
   F F
   F F
   F F
   T F
   F F
   F F
   F F
   F F
   F F
   T F
   T
   F
   F
   F
$
  20050101 000000 $WimUpStr
  20050101 010000 $WimUpEnd
$
  1
$
   20050101 000000 3600 20050101 010000 $WimUpOut
$
$ CFX HS LM IC1 IC5 ICE TWI FIC
N
CFX HS LM EF ICE WND TWI
$
$
   20061231 230000 3600 20070101 000000 $WimUpOut
       0 120000 'Point1'
   0.    0.  'STOPSTRING'
   20050101 000000	0  20050101 006000
   20070101 000000 3600 20070101 010000 $WimUpRst
   20050101 000000	0  20050101 006000
   20100606 000000	0  20100607 000000


$ 'IC1' 20100606 000000 2
$ 'IC2' 20050101 000000 1.83e-6
$  'IC5' 20100606 000000 200
$  'IC3' 20100606 000000 917
$  'IC4' 20100606 000000 1e6
$  'WND' 20050101 000000 20. 270. 0.
  'STP'

