$ WAVEWATCH III shell input file
$ ------------------------------
   T F
   T T
   F F
   F F
   T F
   F F
   F F
   F F
   F F
   F F
   F F
   T
   F
   F
   F
$
  20050101 000000 $WimUpStr
  20050101 010000 $WimUpEnd
$
  1
$
   20050101 000000 3600 20050101 010000 $WimUpOut
$
$ CFX HS LM IC1 IC5 ICE TWI FIC
N
CFX HS LM TWI FIC EF
$
   20050101 000000 3600 20050101 010000 $WimUpOut
       0 120000 'Point1'
    5000 120000 'Point2'
   45000 120000 'Point3'
   90000 120000 'Point4'
  135000 120000 'Point5'
  170000 120000 'Point6'
  215000 120000 'Point7'
  240000 120000 'Point8'
       0 60000  'Point9'
    5000 60000  'Point10'
   45000 60000  'Point11'
   90000 60000  'Point12'
  135000 60000  'Point13'
  170000 60000  'Point14'
  215000 60000  'Point15'
  240000 60000  'Point16'
       0 180000 'Point17'
    5000 180000 'Point18'
   45000 180000 'Point19'
   90000 180000 'Point20'
  135000 180000 'Point21'
  170000 180000 'Point22'
  215000 180000 'Point23'
  240000 180000 'Point24'
   0.    0.  'STOPSTRING'
   20050101 000000      0  20050101 006000
   20050101 060000 3600 20050101 070000 $WimUpRst
   20050101 000000	0  20050101 006000
   20100606 000000	0  20100607 000000

$
$ 'IC1' 20100606 000000 2
 'IC2' 20050101 000000 1.83e-6 $WimUpIC2
$  'IC5' 20100606 000000 200
$  'IC3' 20100606 000000 917
$  'IC4' 20100606 000000 1e6
$$  'WND' 20100606 000000 5. 180. 0.
  'STP'
